Circuit: * E:\INZ\CHARGER-V2\SPICE\oldmodel.asc

Instance "m:u1:6": Length shorter than recommended for a level 2 MOSFET.
Instance "m:u1:5": Length shorter than recommended for a level 2 MOSFET.
Instance "m:u1:4": Length shorter than recommended for a level 2 MOSFET.
Instance "m:u1:3": Length shorter than recommended for a level 2 MOSFET.
Instance "m:u1:2": Length shorter than recommended for a level 2 MOSFET.
Instance "m:u1:1": Length shorter than recommended for a level 2 MOSFET.
Direct Newton iteration failed to find .op point.  (Use ".option noopiter" to skip.)
Starting Gmin stepping
Gmin = 10
Gmin = 1.07374
Gmin = 0.115292
Gmin = 0.0123794
Gmin = 0.00132923
vernier = 0.5
vernier = 0.25
vernier = 0.125
vernier = 0.0625
Gmin = 0.00100083
vernier = 0.03125
vernier = 0.015625
vernier = 0.0078125
vernier = 0.00390625
vernier = 0.00195313
Gmin = 0.00100083
vernier = 0.000976563
vernier = 0.000488281
Gmin = 0
Gmin stepping failed

Starting source stepping with srcstepmethod=0
Source Step = 3.0303%
Source Step = 28.0303%
vernier = 0.0625
Source Step = 27.2934%
Source Step = 27.323%
Source Step = 27.3526%
Source Step = 27.3822%
Source Step = 27.4118%
vernier = 0.00146484
Source Step = 27.4473%
Source Step = 27.4917%
Source Step = 27.5361%
Source Step = 27.5805%
Source Step = 27.6249%
vernier = 0.00219727
Source Step = 27.6759%
Source Step = 27.7425%
Source Step = 27.8091%
Source Step = 27.8757%
Source Step = 27.9423%
vernier = 0.0032959
Source Step = 28.0155%
Source Step = 28.1154%
Source Step = 28.2153%
Source Step = 28.3151%
Source Step = 28.415%
vernier = 0.00494385
Source Step = 28.5199%
Source Step = 28.6697%
Source Step = 28.8195%
Source Step = 28.9693%
Source Step = 29.1191%
Source Step = 29.2689%
vernier = 0.00741577
Source Step = 29.4937%
Source Step = 29.7184%
Source Step = 29.9431%
Source Step = 30.1678%
Source Step = 30.3925%
vernier = 0.0111237
Source Step = 30.7184%
Source Step = 31.0555%
Source Step = 31.3926%
Source Step = 31.7296%
Source Step = 32.0667%
vernier = 0.0166855
Source Step = 32.5386%
Source Step = 33.0442%
Source Step = 33.5499%
Source Step = 34.0555%
Source Step = 34.5611%
vernier = 0.0250282
Source Step = 35.2437%
Source Step = 36.0021%
Source Step = 36.7606%
Source Step = 37.519%
Source Step = 38.2774%
vernier = 0.0375423
Source Step = 39.2634%
Source Step = 40.401%
Source Step = 41.5387%
Source Step = 42.6763%
Source Step = 43.814%
vernier = 0.0563135
Source Step = 45.236%
Source Step = 46.9425%
Source Step = 48.649%
Source Step = 50.3554%
Source Step = 52.0619%
vernier = 0.0844703
Source Step = 54.1097%
Source Step = 56.6694%
Source Step = 59.2291%
Source Step = 61.7888%
Source Step = 64.3485%
vernier = 0.126705
Source Step = 67.2922%
Source Step = 71.1317%
Source Step = 74.9713%
Source Step = 76.963%
Source Step = 77.203%
Source Step = 77.443%
Source Step = 77.683%
Source Step = 77.9229%
vernier = 0.0118786
Source Step = 78.1869%
Source Step = 78.5469%
Source Step = 78.9068%
Source Step = 79.2668%
Source Step = 79.6267%
vernier = 0.0178179
Source Step = 80.0047%
Source Step = 80.5446%
Source Step = 81.0846%
Source Step = 81.6245%
Source Step = 82.1644%
Source Step = 82.7044%
vernier = 0.0267269
Source Step = 83.5143%
Source Step = 84.3242%
Source Step = 85.1341%
Source Step = 85.944%
Source Step = 86.7539%
vernier = 0.0400904
Source Step = 87.9283%
Source Step = 89.1431%
Source Step = 90.358%
Source Step = 91.5729%
Source Step = 92.7877%
vernier = 0.0601356
Source Step = 94.4885%
Source Step = 96.3108%
Source Step = 98.1331%
Source Step = 99.9554%
Source stepping succeeded in finding the operating point.

.step svset=0.2 svcell=2.5
.step svset=2.4 svcell=2.5
.step svset=0.2 svcell=4
.step svset=2.4 svcell=4
.step svset=0.2 svcell=4.2
.step svset=2.4 svcell=4.2

Date: Mon Jan 13 13:38:54 2020
Total elapsed time: 63.655 seconds.

tnom = 27
temp = 27
method = modified trap
totiter = 76383
traniter = 74852
tranpoints = 14156
accept = 10746
rejected = 3410
matrix size = 65
fillins = 94
solver = Normal
Matrix Compiler1: 8.13 KB object code size  2.5/1.1/[0.6]
Matrix Compiler2: 6.86 KB object code size  0.9/1.2/[0.9]

